363
 energy: -703.385951560276 gnorm: 0.000673563198 xtb: 6.3.0 (preview)
C          22.06886211003253     2.64810717659534     1.22330526950909
C          22.66974982836315     3.89369214963754     1.29435239607248
C          23.44661293646436     4.32468027490875     0.23176405529259
C          23.62741647770691     3.52656128155221    -0.88915447076401
C          23.01571446236019     2.28770848022557    -0.94917307714468
C          22.23510750504494     1.84719355626490     0.10672842202104
O          24.15439573061627     5.52696590375236     0.26967998765341
C          23.52121593708179     6.66871429420793     0.40716091953888
N          22.19833380831933     6.70411833135774     0.46765828709107
H          21.47071314770947     2.30618148337343     2.05420379367564
H          22.54127375181586     4.51318686412762     2.16681579397866
H          24.24658087468458     3.88446464647544    -1.69704992515290
H          23.15144549370729     1.66620779590257    -1.82158699931882
C          21.94401515244232    17.28690123450628     1.59474813213432
C          22.63570285131146    18.48587414763510     1.58448808515293
C          23.40444343015871    18.82332417058776     0.48138120066729
C          23.50842731836792    17.96118435862186    -0.60136916190321
C          22.81903740468958    16.76337542793908    -0.59056145548985
C          22.03022575448675    16.43728926578345     0.50316732833579
O          24.16247285298205    19.99283555578889     0.44490459160382
C          23.55186656023245    21.16006232365942     0.43261775110170
N          22.23193426066504    21.22305713034586     0.42645009599358
O          21.38700373445725    15.19914092211253     0.49398066102640
C          20.06964334982688    15.17335065019084     0.50648980542103
N          19.37474999631966    16.29515306435643     0.43204512747386
H          21.34414417420844    17.01242969814179     2.44808702384771
H          22.57962639677039    19.14963521579253     2.43232842378246
H          24.12528042820527    18.23645492120346    -1.44241816959739
H          22.88318096447414    16.08120491769388    -1.42389380760176
C          34.57407720686758    10.08175186493178     1.38326822390955
C          35.29493990677757    11.26289516469201     1.39442449196931
C          36.04268892242972    11.61894462095516     0.28323428977629
C          36.09187500113488    10.79714186616233    -0.83385865053196
C          35.37182087312571     9.61775154946561    -0.84517161186670
C          34.60802106319425     9.27011541572827     0.26034645636901
O          36.83148077821710    12.76786655896156     0.27263544302626
C          36.24529408762432    13.94440208662054     0.36681289803414
N          34.92625449112847    14.02768868311644     0.39483825237737
O          33.95792867134886     8.03837017365677     0.22576227824560
C          32.64547880587953     7.98601437814038     0.33048660220547
N          31.93357209801688     9.09875597973131     0.39083480662481
H          33.99802120707559     9.79367497442581     2.24774959267035
H          35.27932219988657    11.89721054886207     2.26621698250815
H          36.69090174341643    11.08746923483322    -1.68270928218367
H          35.39504883179976     8.96384509993045    -1.70280373137023
C          34.63304602313765    24.79160301792490     1.50857582477996
C          35.33565303318167    25.98423169241855     1.47855952442182
C          36.07560536032985    26.33729160148409     0.36315353330863
C          36.12164398076681    25.49128789906750    -0.73234130778805
C          35.43031741159853    24.29321367166313    -0.71334601745311
C          34.68812085061980    23.95295609707362     0.40773273896338
O          34.07286537360940    22.69838773372625     0.41949806935513
C          32.76150766814373    22.62405307345972     0.43480666161214
N          32.02920227123179    23.72546648350984     0.38541366570188
H          34.05392893594697    24.51431028740388     2.37460315524664
H          35.30179426051544    26.63651917183958     2.33794094549870
H          36.69784039264320    25.76204034508247    -1.60443198406508
H          35.46051765478952    23.61717899247276    -1.55383949512776
C          23.00083130659845    12.68300754604959     0.08480480635322
O          23.76740507681968    13.12503070348050     0.80944166232902
O          22.26044084288109    12.25386782685721    -0.67347930967853
C          19.10360622513576     5.41407324213049     4.68051305667773
C          18.49094585154672     4.17692100963644     4.58732557898550
C          18.51827656861738     3.47581082698886     3.39343312637691
C          19.16129582525952     4.01212181898330     2.29068606778798
C          19.78414082059726     5.24573219698133     2.37155357306115
C          19.74816297350096     5.93881245705030     3.57075897277278
O          20.28165785381427     7.22734148172854     3.67090237761312
C          21.58489481424874     7.37922614148562     3.58922447531981
N          22.37163811556377     6.31585499435815     3.53484632424548
H          19.08682386156381     5.97785611054193     5.60047098336162
H          17.99075924736048     3.76218418465972     5.44963269934107
H          19.17944556357056     3.47274677539804     1.35579674908175
H          20.28815901556404     5.66919568280516     1.51784949224687
C          18.86607427800790    20.74155889218655     4.53470620088770
C          18.14537510778947    19.56333927787938     4.53522025439674
C          18.31899489603087    18.65090676727877     3.50278712183656
C          19.19388038151321    18.91764754530105     2.46203177417265
C          19.91458331103519    20.09907827758883     2.46051365820950
C          19.75579789002313    21.00079865124227     3.50064129618831
O          17.51170138554591    17.51768345345134     3.52276343300873
C          18.05169522101809    16.31550548921875     3.50551701607160
N          19.36524003025915    16.16533591327193     3.50834801150308
O          20.39684213054817    22.23555656792293     3.51443236738852
C          21.71097728942408    22.30482464486709     3.45831662674024
N          22.44735486970517    21.20701663082811     3.48592893454164
H          18.74595435611610    21.46458923486023     5.32605259799790
H          17.44712484205179    19.34178837738214     5.32696624229062
H          19.30789018316255    18.22026635069305     1.64810865586427
H          20.58276612213843    20.31802110985906     1.64354046292412
C          31.71513443139554    13.36294295668653     4.63231564544778
C          31.01852306144746    12.16964994788742     4.63272197352707
C          31.12403812917996    11.31340700854651     3.54516299986082
C          31.90341327738551    11.65224635948872     2.45057961892938
C          32.60304406892479    12.84615514919325     2.45115495816634
C          32.51385645946466    13.69162787763937     3.54537812223737
O          30.35364031236160    10.15263490895336     3.56923221223313
C          30.94089363946558     8.97694970169349     3.48230567170738
N          32.25906721875882     8.88874766406947     3.43655886545547
O          33.14457586960257    14.93337912434065     3.56998828661218
C          34.45779715705773    15.00157843427802     3.50013400900331
N          35.18574623479327    13.89913463388813     3.45420073920964
H          31.64706488538761    14.04354337942070     5.46639818610688
H          30.39328034808789    11.89430046568347     5.46746626759448
H          31.95901123865638    10.99725072386428     1.59630208419517
H          33.20478443467429    13.11689537384331     1.59874993124330
C          31.87693657327005    27.95408456194460     4.63369727536703
C          31.17399048796943    26.76268420552239     4.61345941638314
C          31.17018491331225    25.99424572844411     3.45927768150912
C          31.85720487517834    26.40198714286371     2.32797556514737
C          32.55058619669032    27.60003939360016     2.35989632739121
C          32.56417496662342    28.37444810745458     3.50727586864332
O          30.38173327028597    24.83900022019388     3.44677258536943
C          30.97300850663543    23.66594081064652     3.45444699311578
N          32.29363603439488    23.58744892247546     3.49323595785383
H          31.88528397448612    28.55442977417675     5.53111031011274
H          30.62604153665149    26.42281690510602     5.47877226079546
H          31.84857330219306    25.79281152091072     1.43871993909392
H          33.08081590679905    27.92521512385548     1.47768147120717
C          15.22359303584833    16.79360109230767     1.28124764587703
C          13.84449250645778    16.89432614729199     1.20685819522204
C          13.23579612927166    17.43200541917406     0.08603472812990
C          14.00931970281250    17.88256778783670    -0.97083329690874
C          15.38802001005788    17.79454438762849    -0.90751236512658
C          15.98700667002285    17.24579220826751     0.21772466794940
O          17.38209107548746    17.25896389375974     0.25887963156628
C          18.05433342445161    16.14004626598456     0.39861201255252
N          17.42346504806445    14.97675920008182     0.45952592371593
H          15.69451855124258    16.37763436396984     2.15684335124668
H          13.24790741311268    16.55128769425614     2.03842118246224
H          13.54032529255383    18.30549984682476    -1.84659897857001
H          16.00883179655495    18.14784541549978    -1.71617510001869
C          27.84343800476581     9.46524483139475     1.58804506602089
C          26.45925377340900     9.46567017276967     1.59836928054604
C          25.76651977750286     9.96371743939740     0.50617265643879
C          26.44323852700811    10.48249752840515    -0.58823229647601
C          27.82526055461104    10.48073138931853    -0.59906870687588
C          28.51994635051899     9.96099200901691     0.48430985385785
O          24.37264728167705    10.02560060598286     0.49685557726753
C          23.69169118319652     8.89760892397294     0.51106906607232
N          24.31573394207723     7.73478362725775     0.43867618845138
O          29.91178656704053    10.03272110697723     0.44775524829946
C          30.61721912745477     8.92024856157034     0.43575045549085
N          30.01166688286267     7.74571454790114     0.43024983053770
H          28.39032049553059     9.08580024113960     2.43628062579659
H          25.92165966908953     9.08448001884497     2.45221423696941
H          25.88445482649975    10.87802363884864    -1.42203892764051
H          28.37203147000566    10.87630427463192    -1.44062103670605
C          27.91889118770000    24.04059070856495     1.39436236906753
C          26.53558520823603    24.00654675379550     1.38205514272457
C          25.85052428587282    24.44131524967296     0.25842865629522
C          26.53427245264370    24.92879779685965    -0.84666913737556
C          27.91566406441449    24.96303766243383    -0.83419946816263
C          28.60189790795157    24.51005554271354     0.28362316037823
O          24.45878232178987    24.49406632360755     0.22278103499670
C          23.75708062347990    23.38367870608306     0.32745641856426
N          24.36473165136054    22.21075499584350     0.38809301165528
O          29.99128180745551    24.61906563396050     0.27430895407963
C          30.71712135862665    23.52313851065755     0.36901278445439
N          30.12951915176416    22.33925106939142     0.39591828200422
H          28.45982821748180    23.71025881810708     2.26665274500624
H          25.99740107949209    23.65185652267840     2.24617562955443
H          25.98022487468104    25.27548031379552    -1.70486982753324
H          28.46723081715914    25.33653061371092    -1.68269809841449
C          40.68873878927897    16.71858448940432     1.47067521011760
C          39.30464590691538    16.70962111338773     1.50458515041455
C          38.60380759269830    17.16552019331985     0.40041174723869
C          39.26734526266128    17.62354331013483    -0.72796515997260
C          40.65053159915079    17.62011880756264    -0.75075340943679
C          41.36227333003683    17.16864305818225     0.34811995634986
O          37.20971299905085    17.26262971531299     0.41601083500650
C          36.48901423823332    16.16457051983723     0.43148563820496
N          37.07656997609098    14.97959870070820     0.38169945980749
H          41.23841933443593    16.37177478015036     2.33249815728100
H          38.77647315399756    16.35728362368719     2.37586732044030
H          38.69546052475179    17.97901350855907    -1.57115783730697
H          41.17142857784282    17.97242579873018    -1.62847551899497
C          13.37390705627182    13.02253059248544     4.56976447716265
C          14.75150126364227    12.93641231721191     4.66658640362920
C          15.53100135185774    13.23824904704719     3.56037238515331
C          14.95160865221725    13.61989973992135     2.36103803874805
C          13.57196466190461    13.69536782607097     2.27650236448843
C          12.78324823403958    13.40081088858777     3.37573119621591
O          16.91347984445976    13.05752991962905     3.66427331360929
C          17.69654244965962    14.11027664469502     3.58223428598756
N          17.16904317090955    15.32322005008544     3.52582188729136
H          12.76251487444825    12.79206745784919     5.42933018245967
H          15.22919069807404    12.63686294386825     5.58665862342342
H          15.57232704803512    13.84900524663511     1.50993356832610
H          13.11620148729258    13.98380323386599     1.34143199996731
C          26.53238206785345     5.04152757115581     4.54407140721013
C          27.91312258898339     5.07577873541466     4.54233827177679
C          28.58197025744702     5.71507973875036     3.50695187327265
C          27.87990573037924     6.30270051791959     2.46677842727849
C          26.49638800511305     6.27006417423964     2.46952726843092
C          25.82844127890705     5.64731278268879     3.51154649134401
O          29.97182744122244     5.65217548663105     3.51954626654928
C          30.68909572235477     6.75546710147839     3.46243014176577
N          30.10657852222620     7.94209777186906     3.48993866554155
O          24.44337081659477     5.51534604172109     3.53277284252655
C          23.67232260784360     6.58407820585988     3.51385954830937
N          24.19897216040516     7.79677475275252     3.51452132854648
H          25.99178212790816     4.54883924525496     5.33685684091973
H          28.47961573310848     4.61079209210675     5.33373386896984
H          28.40321277871144     6.77064855710204     1.64883028291534
H          25.94905501645588     6.71690964473571     1.65555592073450
C          26.56371446586945    19.88148759874472     4.63040408442551
C          27.94544378610996    19.88776199487567     4.63075111769579
C          28.63019752066734    20.41588680923441     3.54464416460928
C          27.94330335300324    20.91694993377741     2.45046830965482
C          26.55952605171414    20.90832333587121     2.44911525874527
C          25.87565165431421    20.40208120038567     3.54291238273177
O          30.02092250119778    20.34088876640578     3.57002814907223
C          30.73686907877672    21.44394547842735     3.50113403881083
N          30.14627044634418    22.62570538400317     3.45533017432654
O          24.48516414001068    20.31558281004405     3.56624884253255
C          23.76075298194652    21.41207014149316     3.47905807847569
N          24.34358360982053    22.59771082162920     3.43371636464657
H          26.01207622967683    19.47712346235388     5.46450664719584
H          28.50026436489328    19.48764939976710     5.46479448717659
H          28.47918359016307    21.30330540387753     1.59867711071990
H          26.02066457144694    21.28473046342951     1.59480493852781
C          39.28459035866081    12.69843887947840     4.59975642646985
C          40.66791532975020    12.70740811989439     4.61538407545064
C          41.37277951465673    13.10592275521193     3.49190440948781
C          40.69238630494290    13.49870760892625     2.35211196432276
C          39.30805746008829    13.50154024253583     2.32493385283908
C          38.61420420738500    13.09720698847577     3.45328860099727
O          37.21944005096022    12.99547436402326     3.44551682664611
C          36.50009957982093    14.09468442189464     3.45196497432998
N          37.09266478168583    15.27755450716693     3.48931331991591
H          38.71832866783742    12.38346530505723     5.46268021158398
H          41.19425631782923    12.40069235312952     5.50685857581381
H          41.23683798422230    13.80550015428253     1.47197854428790
H          38.77419770339763    13.81157576046499     1.44127748122463
C          18.18976002910873    10.70414890028606     1.70354172436958
C          18.88089859875494     9.50660593919097     1.70470536981049
C          19.73613908686340     9.20793848510095     0.65351193732488
C          19.90250799274483    10.09467524919405    -0.39987566203871
C          19.21184925991317    11.29151047806034    -0.40100198246107
C          18.35995005047138    11.59260841178729     0.65123669013400
O          20.36622107809321     7.96595576798590     0.65829252798183
C          21.68055012738352     7.92226671089752     0.55458616417270
N          22.37499003628857     9.04711049945043     0.56178007993477
O          17.59976047997844    12.75949569990918     0.65361291590368
C          18.21936003529007    13.91933693831748     0.54897277122546
N          19.54071478972358    13.95833343409419     0.55776665567285
H          17.53572814657567    10.96814566435307     2.51840349446249
H          18.78164071985155     8.80940231883403     2.52050103053568
H          20.57198340307130     9.85600522420443    -1.20992312181086
H          19.34086016251317    11.98945255284448    -1.21190929258302
C          31.77289285612163     3.98349341342970     1.35283945275600
C          32.41341898673956     2.75693964648907     1.30458681039432
C          32.23818156368895     1.91262002577496     0.22174827796585
C          31.40966965423117     2.29020806256540    -0.82187285519885
C          30.75876656786573     3.51005228558510    -0.78432315089946
C          30.94852352554013     4.35150447084609     0.30232744155507
O          30.20710884476751     5.53379784445925     0.33002132863032
C          30.82257878909756     6.69319206317564     0.37449515654140
N          32.14317967765258     6.75660370208655     0.32276543178975
H          31.90632545397879     4.63950437802727     2.19771305435236
H          33.04989662019146     2.46410021005264     2.12577188901140
H          31.26738996809428     1.63430111206328    -1.66766835614767
H          30.10307072308513     3.81904255832491    -1.58353529512433
C          19.11446537184061    25.79823575824549     1.29955526794197
C          19.85781160904354    24.63108825207980     1.34676763408150
C          19.75987649223956    23.73062557501500     0.29883274417303
C          18.93029414900312    23.98361649263606    -0.78409744570829
C          18.19797904454843    25.15640801349589    -0.82064211868090
C          18.28981102812923    26.06531323549929     0.22033018624898
O          20.41416480675344    22.49808577286692     0.32543270652521
C          21.72595486122081    22.45165221842080     0.37064378232885
N          22.44128297507048    23.56355012658405     0.31933180091506
H          19.18262482895447    26.49781134736499     2.11879386586541
H          20.49692191986151    24.42117875037889     2.18905516192046
H          18.86658916527828    23.25924890400987    -1.58120099554454
H          17.55417430993839    25.35846877817420    -1.66356203316088
C          31.91883784415101    18.63076039789268     1.51620800131879
C          32.61054220450657    17.43199791782565     1.51612629024573
C          32.50278538607284    16.57979748745917     0.42895899477772
C          31.69242394025719    16.90389681614158    -0.65054919922279
C          31.00208046459879    18.10039437119652    -0.65048933854348
C          31.12709610749938    18.96409086112669     0.42908594280852
O          33.12819407472138    15.33542930525307     0.40340836740642
C          34.44261866777532    15.26441314240698     0.43414617821072
N          35.17522629049079    16.36434830536044     0.45932755654788
O          30.36268451471893    20.12821903293050     0.40358729841017
C          30.95858442774134    21.30194378021882     0.43533442123029
N          32.27742870412087    21.38637005486844     0.46140723800820
H          31.99153582614154    19.29389976685397     2.36300818235401
H          33.22118824128168    17.16301687674863     2.36281222226097
H          31.61084293669500    16.21728670075493    -1.47846951107370
H          30.36679149281308    18.37347829167985    -1.47836152297652
C          23.54260909121163    12.20133564754072     4.35686562969412
C          22.85189493213921    13.39674454124614     4.35618345932178
C          21.71063238157300    13.53429323896349     3.57445832270803
C          21.28656053033285    12.49228272226809     2.76606935861192
C          21.97806374227439    11.29557396440983     2.76671362883775
C          23.09221402738439    11.14325639517410     3.57578426335426
O          21.09691447547805    14.77806978258809     3.59534594144634
C          19.78526241150257    14.90327241180342     3.55400735998139
N          18.99576989367548    13.84515774240438     3.60269903505500
O          23.86312600729264     9.99027251373964     3.59803229051984
C          23.31594507424115     8.79157840123372     3.55861551101485
N          22.00484504830772     8.63697216183323     3.60752146776068
H          24.43150764787720    12.07551988885086     4.95420647250044
H          23.18653382983738    14.23020563787940     4.95296311345787
H          20.43763124752217    12.61592708201376     2.11687500188271
H          21.66157621638204    10.49780798968668     2.11798932504663
C          36.01280905468803     4.67635677286684     4.47021861598381
C          35.34362628206501     5.88697974538787     4.49369930098231
C          34.64552024725630     6.30087064016896     3.36939126332230
C          34.61147512084596     5.52276973247768     2.22399886024602
C          35.29088404071002     4.31637984591390     2.21226312221629
C          35.98769539212978     3.89060817509459     3.33014037949912
O          34.04912212544486     7.56513561274251     3.40195367582335
C          32.73808882757568     7.64963542713453     3.40981608043957
N          32.00124830517451     6.55080181280653     3.42442811889607
H          36.55513592314672     4.34855079657643     5.34441878983688
H          35.35774668062241     6.51615227639968     5.37025677436349
H          34.06537756204574     5.85605794093078     1.35647901259678
H          35.27321401555974     3.71087642598509     1.31879971963558
C          23.27432787252303    26.76243937192561     4.49675227551004
C          22.55810718602429    27.94589509172447     4.47505624290482
C          21.87220771175969    28.32207377497333     3.33233028605796
C          21.90187544178985    27.51212713938507     2.21000905120755
C          22.60939711105370    26.32198840126643     2.21989152796109
C          23.29329597840815    25.95748409077486     3.36790543250975
O          24.09189706024854    24.80995687374084     3.39866171255580
C          23.51002710313112    23.63209325579944     3.40684758449060
N          22.18998430815306    23.54347202352644     3.42107147961429
H          23.82075723473754    26.45625957848492     5.37544080110068
H          22.53793509096561    28.57442107567426     5.35275078521856
H          21.37402085282715    27.80346859294090     1.31462396291252
H          22.63204704080445    25.68703196079516     1.34914038555355
C          36.19019199186942    19.49833894408765     4.67313876291224
C          35.49885342052475    20.69501396592722     4.67392268631427
C          34.71585277586279    21.03533234501861     3.57970041533085
C          34.63311292521745    20.19730844915954     2.47883829048055
C          35.32531257454805    18.99912441002516     2.47805330265683
C          36.09325227163038    18.65113256336485     3.57812934768921
O          34.09369960599335    22.28192267814876     3.59737146564410
C          32.78016982407492    22.35187687145791     3.52273016724011
N          32.05128927248983    21.24888532531791     3.52638835052080
O          36.86223489512997    17.48930126515893     3.59417240583751
C          36.26599947622287    16.31671726341993     3.51979018510879
N          34.94633175314518    16.23732136281772     3.52477037525793
H          36.80441289989056    19.21429204161006     5.51319526096802
H          35.56009221047994    21.36818816837273     5.51459285345784
H          34.04104069455975    20.47921147940874     1.62297544907404
H          35.27325063206992    18.34616464267566     1.62162850356758
H          17.71468256471373    26.97882302541695     0.19082472686327
H          21.31697434993098    29.24821744534009     3.31745635761761
H          33.10825674127013    29.30715060504289     3.52487495245854
H          36.61961934325737    27.27003096995436     0.34696932574556
H          42.44201772810752    17.17103598132809     0.32889508853924
H          42.45262374642584    13.10758097828062     3.50578836924345
H          36.51400386098201     2.94775383872693     3.31380375449814
H          32.74279095208665     0.95836764382983     0.19142969303561
H          18.03553091752972     2.51235470692312     3.32319888947692
H          21.76137087675041     0.87795308465951     0.05950273853249
H          11.70760610494263    13.46299434064589     3.30261073022948
H          12.15957083307354    17.50509559677075     0.03619976702816
