362
 energy: -698.838534541675 gnorm: 0.000593901795 xtb: 6.3.0 (preview)
C          21.82090464486456     2.61495181704771     1.39454021743426
C          22.49562964980903     3.82300445470690     1.34717444388395
C          23.16652242207812     4.17193227696141     0.18604687536868
C          23.16818878707066     3.32980367151159    -0.91690463756381
C          22.48360689805208     2.12930169428174    -0.85779667473544
C          21.80961478856465     1.77037426115025     0.29762171516294
O          23.94870347432376     5.32528686768861     0.10747962051221
C          23.40011299122405     6.50579497397930     0.28559727395113
N          22.08575551343587     6.61562791919691     0.42609792101699
H          21.30641121251594     2.33564775604722     2.30143084924187
H          22.50774022337501     4.47986261504137     2.20146843689300
H          23.70690016450071     3.62320674074649    -1.80463313107825
H          22.47975600337406     1.47355757174413    -1.71555406614202
C          21.73260382261484    17.45190419436134     1.30710811644510
C          22.42666035312830    18.64869087166382     1.29187650952614
C          23.20537716734233    18.97447340560982     0.19228987643376
C          23.31307254698324    18.10668727542718    -0.88552974975104
C          22.62159513028774    16.91061049060342    -0.86953121723262
C          21.82742784820613    16.59285548336599     0.22344821259656
O          23.97722343657690    20.13223787653459     0.16168792297729
C          23.39503510975997    21.30802325723329     0.24968975659908
N          22.07774094771154    21.41774322843735     0.23399355299763
O          21.20827982039435    15.34660526345685     0.22613753168064
C          19.89858240481860    15.27165917648906     0.31533633495192
N          19.15073369919200    16.36088198529635     0.27108923789294
H          21.13129213709177    17.18319877366828     2.16130753195170
H          22.37292953572319    19.31811786216013     2.13572209877401
H          23.93738279835395    18.37393543993524    -1.72352223597612
H          22.69218175296569    16.21942861786207    -1.69458132532723
C          34.56881858167414    10.08164219642751     1.37952164564301
C          35.26806328523112    11.27611895072281     1.37648944370783
C          36.09040690836587    11.58591831012408     0.30505917318228
C          36.23174287085711    10.70635078422006    -0.75945408097062
C          35.53235768626554     9.51510041073844    -0.75723052742283
C          34.69708665913391     9.21060276769318     0.30943235575119
O          36.87365769576006    12.73735727582380     0.28984412310799
C          36.29549907249137    13.92047087599633     0.31844183124242
N          34.97806530746190    14.02395896462490     0.27762928841017
O          34.08036071843321     7.96275127719229     0.29057947869370
C          32.76580874178917     7.86766499004143     0.33173268542753
N          32.01218649745542     8.95348014110548     0.36070196194494
H          33.93951709906954     9.83047979828651     2.21790986359699
H          35.18016665968124    11.95377069261618     2.21046168301576
H          36.88752954022856    10.96151004125451    -1.57702371554846
H          35.62771864169748     8.81589996120000    -1.57309292317196
C          34.61899290771266    24.83223948609378     1.42331239348841
C          35.30455479935009    26.03443232427173     1.46832022362058
C          36.03063597910810    26.47276983451954     0.37426915562714
C          36.08023101213204    25.70282055699866    -0.77583724013531
C          35.40555342961261    24.49659891486284    -0.83263040197381
C          34.67614927447451    24.07067940768551     0.26776624503313
O          34.08303038885771    22.80805377122267     0.19370022037870
C          32.77594233401275    22.69452467788761     0.26268457421889
N          32.01438821384449    23.77498403156152     0.34940708745348
H          34.05469168217429    24.49028887216296     2.27544259540251
H          35.26964785000189    26.62580269264842     2.37065917327646
H          36.64674785079460    26.03905320441219    -1.63127904925910
H          35.43926690654528    23.87864838427385    -1.71657248119868
C          18.99196971497545     5.75765530247129     4.82282761569670
C          18.30933665215222     4.55517511723697     4.78382084875375
C          18.34398620867697     3.77357095232901     3.64104917121482
C          19.06304794114202     4.19681926730020     2.53627574193188
C          19.75692149272239     5.39452885874485     2.56347719398762
C          19.71585610553999     6.16811971149374     3.71240515074092
O          20.30930010186327     7.43017652658912     3.76952243737194
C          21.60253803005849     7.55716161102735     3.57463114504218
N          22.36560527323456     6.47918081153701     3.45251935222753
H          18.96997508068417     6.38482681742232     5.70061337381386
H          17.74826582501118     4.23098048727295     5.64745215058381
H          19.08477984404703     3.59716935343778     1.63898413914371
H          20.31428128987257     5.72697554741753     1.70304723257492
C          18.98551941885390    20.68998276962206     4.48938968958083
C          18.26739020232587    19.51000955749852     4.48951156839866
C          18.29805353482505    18.68839307272462     3.37123478422610
C          19.03418325872675    19.04122188765832     2.25163737111962
C          19.75352608895928    20.22455386481231     2.25119088891799
C          19.72980371474350    21.04038981016705     3.37112814043787
O          17.49433412959120    17.54935798951042     3.39321094301621
C          18.06046649656427    16.35859546356232     3.38297398435653
N          19.37714089749036    16.24846836883791     3.34176906678090
O          20.36234371186570    22.28177044141071     3.39380734804983
C          21.67770954536903    22.35740549152256     3.34724221278586
N          22.41216463965059    21.26003443302585     3.28335982629078
H          18.97312517373846    21.34515292729936     5.34634707539661
H          17.68025316642901    19.21999289718751     5.34682705979415
C          31.64309525604245    13.46144614341850     4.41688480866370
C          30.96241252733408    12.25937182277309     4.44998646385235
C          31.08236990272264    11.37402448098445     3.38771083312353
C          31.85788046172262    11.69153764002760     2.28348444619604
C          32.54069446207661    12.89504017224328     2.25091074847171
C          32.43840661008525    13.76874975924186     3.32192725389740
O          30.32743497091027    10.20561393769154     3.43710403777284
C          30.92837249325606     9.03680067339178     3.38696991176376
N          32.24681255022339     8.94749786951502     3.42249991050812
O          33.06604539562986    15.01459891733935     3.31532794199500
C          34.38206107098915    15.06394654081008     3.32750439633461
N          35.09195809441051    13.94951590622301     3.35454156641022
H          31.56573570681560    14.16467043980991     5.23124988224801
H          30.33945006320240    11.99964033770429     5.29134857980270
H          31.92131620161048    11.00865333595496     1.45108791103297
H          33.14292285040599    13.15172721715708     1.39413139233332
C          31.61431771461492    28.05007858673432     4.67735011946118
C          30.95457831505589    26.83423884915014     4.66720958910097
C          31.06926149099936    26.00492209382147     3.56067481336440
C          31.82702350756140    26.38208242793298     2.46350204788892
C          32.47705654111478    27.60420664012387     2.48518744367526
C          32.37648334145564    28.43609504057025     3.58729682758229
O          30.31359531484947    24.83136844619721     3.55953675291809
C          30.91313393993547    23.66996807284245     3.42627856387591
N          32.23588652398296    23.59919113091278     3.42104914938917
H          31.53084085258104    28.69615463606345     5.53840286510883
H          30.34988868140263    26.51883779048225     5.50339598423189
H          31.89935906226997    25.73443676433029     1.60486550093618
H          33.06087081172608    27.90450925379657     1.62833116178929
C          15.03938823544181    16.74367587858304     1.36782539278991
C          13.65481947407709    16.76262817260573     1.36971997642769
C          12.95393245512957    17.15745422103279     0.24318944580029
C          13.63892567688999    17.54397158300060    -0.89674271951621
C          15.02206135202034    17.53723797083347    -0.91038153556872
C          15.71365099194519    17.13397980901740     0.22264429387958
O          17.10692596492700    17.22735913896194     0.18888410592954
C          17.83962750036371    16.14363564288828     0.30360694594892
N          17.26568451157461    14.95357053364456     0.40567474870467
H          15.58538436343260    16.43582256753146     2.24459903821327
H          13.12649577958666    16.46844490352093     2.26384796758208
H          13.09725781654529    17.85392501689567    -1.77784708930763
H          15.57366792294193    17.84376405491058    -1.78567515880585
C          27.88852611719978     8.96892418951281     1.27008476668774
C          26.50617383506915     8.96818649317642     1.26876382830933
C          25.82088731348441     9.72728179198660     0.33313589248725
C          26.50814950690432    10.51427528076480    -0.58171393140926
C          27.88966445921389    10.51568753108225    -0.57942603440388
C          28.57575381933742     9.72968234129595     0.33719364947474
O          24.43467079128852     9.81038511259174     0.31901018617017
C          23.70341126352280     8.71822578332025     0.37178782784190
N          24.25319290510994     7.52125319119667     0.26527396849021
O          29.96348224226777     9.81644112691166     0.31909531240429
C          30.70116202061057     8.72511771631145     0.33648098804549
N          30.14077708431829     7.53001879806015     0.28487996575255
H          28.42771139032864     8.39992842295861     2.00886192010697
H          25.96287530196524     8.39968592083208     2.00575158118082
H          25.95467115254294    11.11764709401257    -1.28365428542958
H          28.44460924668435    11.11967322750910    -1.27976789541020
C          27.87605292326286    25.24809762783998     1.43178479695021
C          26.49550110714134    25.24880708903775     1.42822243060339
C          25.80736470597904    24.51092343841005     0.47375262659707
C          26.49889160980177    23.78676593112831    -0.48593161839853
C          27.88222859254951    23.78597286751679    -0.48242197326171
C          28.56917053777269    24.50944375285964     0.48123580310980
O          24.42191643445371    24.60729710462206     0.48439653485277
C          23.67545095183984    23.52543766129411     0.36726844513537
N          24.23828732350946    22.33221510005377     0.30555641284752
O          29.95375101143429    24.60810159955292     0.50181294217710
C          30.70864015083628    23.53493609499000     0.36377691914133
N          30.15830840821295    22.33788570297302     0.26989835919436
H          28.42720712078301    25.80479254373326     2.17127796636282
H          25.94111542354828    25.80555619938020     2.16525323704927
H          25.96316801926817    23.22393543988746    -1.23256095840696
H          28.42097356150772    23.22233543507354    -1.22613842445656
C          40.73436200556501    16.68472495514663     1.54748367168347
C          39.35029688416626    16.71603881273278     1.52834030189525
C          38.70395505530374    17.08999850558808     0.36187179083341
C          39.42065581834565    17.42550421311361    -0.77660690771329
C          40.80316799627103    17.38332285879743    -0.74534295400492
C          41.46093078200001    17.01440662494229     0.41613699930481
O          37.31218733501318    17.22316642524505     0.32085401887821
C          36.57022488291674    16.13855175505851     0.33085903041294
N          37.14084012682962    14.94468883235739     0.34317079553014
H          41.24221263864847    16.40139387114561     2.45688610194631
H          38.77994527223169    16.45560167032144     2.40515727417981
H          38.89099089132426    17.71781554850340    -1.67021123650515
H          41.36576662762146    17.64087389064833    -1.63019369078611
C          13.54840032305940    12.81185567719925     4.70528508984051
C          14.93148328417311    12.79709022467935     4.73415815152335
C          15.64065652249492    13.18944637541201     3.60843382117877
C          14.98426385009080    13.58922979866752     2.45556013057644
C          13.60000927874367    13.59211173871984     2.43852124466250
C          12.88156347206199    13.20833043210448     3.55809153311684
O          17.03183846510393    13.07151236599020     3.64764289405073
C          17.77539859900795    14.14599895537186     3.50705499401389
N          17.20939375132036    15.34250247092899     3.45446898390734
H          12.99244142849028    12.51106914947618     5.58063876882942
H          15.46888626324094    12.48357218212708     5.61582313689926
H          15.54854532170195    13.88675882574061     1.58658088473155
H          13.08528531364958    13.89394463559217     1.53897472122239
C          26.48519935616477     6.47470734230447     4.17272241567432
C          27.86799830713109     6.48822062015487     4.17720791586507
C          28.56611780479630     5.80922383571962     3.18938420189160
C          27.88639365337596     5.11462703009591     2.19781963704716
C          26.50518129194266     5.10140475885323     2.19322381111155
C          25.80595828488784     5.78242435839741     3.18065188493225
O          29.95337165961606     5.72085455334553     3.19094784305205
C          30.68421049430804     6.81293713945181     3.30892379252705
N          30.10228816189478     7.99814606084083     3.34458462703339
O          24.42275143577712     5.66014167926874     3.17986114708026
C          23.66230483121224     6.72965315936440     3.33231098464677
N          24.20755822376540     7.93257815338799     3.33285400559260
H          25.93815642963594     6.99910956655609     4.93935551207571
H          28.39978912883542     7.02341259042255     4.94694978165058
H          28.44680611804223     4.60227247530441     1.43373034938134
H          25.95971204895406     4.57736197138095     1.42598964940291
C          26.52695092719054    19.59898546982796     4.09244150934389
C          27.90858947048471    19.59158916064311     4.07976410604795
C          28.59076296661436    20.41269997034894     3.19173185707856
C          27.89985730892095    21.20662508431728     2.28970916245426
C          26.51716156274056    21.21494174193638     2.30342781942181
C          25.83536201042111    20.42794131073912     3.21841851072495
O          29.98103060593921    20.34268178835155     3.21315919948839
C          30.69024361173495    21.45174197244902     3.26600834305181
N          30.09601099817947    22.62813949443253     3.35164139709526
O          24.44708843116260    20.36215890891252     3.26126560455414
C          23.72771147929922    21.46541359270481     3.29008032628781
N          24.30821127471200    22.64931806936598     3.36683556198650
H          25.97598381209523    18.97265164520411     4.77607508792134
H          28.46667601534047    18.96006929261070     4.75287783886151
H          28.43625519935798    21.80319858123007     1.57038288141522
H          25.97351057253079    21.81792454101643     1.59505217931049
C          39.11907318903022    12.55691860372637     4.65651162991009
C          40.50062975378724    12.51736748770423     4.71262448551339
C          41.25257912210189    12.97459176484760     3.64324979485181
C          40.62047415671115    13.47182738387178     2.51657070475769
C          39.23852080164817    13.52371336139618     2.44934526634425
C          38.49707420416900    13.06368114950815     3.52494226014178
O          37.10207568403555    13.00805760450342     3.48012100965179
C          36.40891575597617    14.12135524796280     3.41047210843683
N          37.02010461569751    15.29491796313449     3.43838945194462
H          38.51575199298644    12.19787873333239     5.47589131142406
H          40.98878004836399    12.12706123092663     5.59308255291213
H          41.20111800834516    13.82179520695651     1.67660569844752
H          38.74439610980059    13.91026919278305     1.57268188440094
C          18.12017274410885    10.69563419464069     1.66896284431966
C          18.81810641191060     9.50365757284534     1.68863441278510
C          19.73346164566394     9.22378669499741     0.68279173176091
C          19.95157936534846    10.13314770088863    -0.34203593648662
C          19.25190611298718    11.32586533356188    -0.36240960430612
C          18.33777704944562    11.60525994100237     0.64296569665624
O          20.33709151949840     7.97301361351895     0.70031108641935
C          21.64184376411990     7.86154144364313     0.52585130778171
N          22.39816439065685     8.94378588540124     0.48685594427509
O          17.54898478903953    12.75013693593041     0.62848345194725
C          18.11179095440375    13.93295250206148     0.46966792689140
N          19.42701728552179    14.03391073146848     0.40373617094999
H          17.41507067421156    10.93700609578924     2.44690857072950
H          18.67056551390549     8.78969739872195     2.48185280342488
H          20.66196991621536     9.91051869301439    -1.12172309591725
H          19.41610960836155    12.03407532284260    -1.15818579267475
C          31.92664611134030     3.86199300635031     1.39111306495462
C          32.62186464702561     2.66603070096600     1.44328387689403
C          32.62377067703166     1.80515980089556     0.35890503807829
C          31.92090716985378     2.13567886806519    -0.78767668944341
C          31.21647874810788     3.32464757909215    -0.85154453467450
C          31.22737374378073     4.18240285765758     0.23854174951303
O          30.43003213470179     5.32658015984280     0.16745812546949
C          30.99004198413331     6.51138340945508     0.26818224526314
N          32.30945063536227     6.62115797286503     0.29819581372507
H          31.91977868276064     4.53449267157376     2.23360142943816
H          33.16016355292109     2.40892962567547     2.34294013402919
H          31.91821595872498     1.46685717677097    -1.63529464977435
H          30.65655967512398     3.59620021933288    -1.73309195544299
C          19.07436517076697    25.99230322462833     1.44482523842795
C          19.78297830242273    24.80360651872866     1.39953321150201
C          19.69474081614391    24.01301836973473     0.26549674577925
C          18.91050053884979    24.39711440003652    -0.81265964495610
C          18.21347868767505    25.59049463798118    -0.75618475634725
C          18.29472191135184    26.38946552510239     0.37214838491575
O          20.30913665871443    22.76168525001803     0.19272571344767
C          21.61652420781866    22.66434142376740     0.27031134416755
N          22.36799691130191    23.75306967031266     0.34042628191033
H          19.13351776716722    26.60556118940248     2.33116311500260
H          20.38758121952152    24.49367074274959     2.23620466663906
H          18.85291190225253    23.75663221364745    -1.67907592208483
H          17.60482138594482    25.89410213678667    -1.59472570823756
C          32.06678340063475    18.71171748467145     1.15904308065346
C          32.75865588739557    17.51423760848786     1.18152585557171
C          32.57949390118902    16.59946171596916     0.15629810293681
C          31.69215405836403    16.86163707027700    -0.87953268015672
C          31.00143258527361    18.05789989115066    -0.90218668371938
C          31.20194160512580    18.98556066737516     0.11172279596927
O          33.20251693899036    15.35589193755393     0.15367038349582
C          34.51296589160990    15.26907102057085     0.25890412492287
N          35.26085712122197    16.35847720462917     0.29175247237601
O          30.43760128021595    20.14523676558626     0.07304860805114
C          31.01167367326090    21.32233842442625     0.20050831643414
N          32.32790120491808    21.44480803356739     0.20255181214511
H          32.18925009628943    19.42094558578883     1.96224314639296
H          33.42160260169182    17.29282368196069     2.00232962277823
H          31.55229421354089    16.12663991431395    -1.65642254797882
H          30.30748860101899    18.28135514039698    -1.69698715837405
C          23.49842007535807    12.29192275474771     4.31531461031592
C          22.80616450182563    13.48708515355053     4.29566717104967
C          21.76944403350090    13.66516561905324     3.38891429299922
C          21.44193076998824    12.66817390302548     2.48343624805895
C          22.13486774792129    11.47216951414089     2.50275257736274
C          23.14938097021447    11.28237361738124     3.42780896295662
O          21.14962449807357    14.90934416627612     3.38681485187672
C          19.83573709030911    15.00030358621441     3.38731368003165
N          19.08184245296649    13.91912630104111     3.47542256856901
O          23.92029979991503    10.12800321828556     3.45580791071260
C          23.34984968455590     8.94312393538257     3.43578568865596
N          22.04108068923572     8.80909774915853     3.56140675369426
H          24.30840010312989    12.13169697346260     5.00910889758680
H          23.05954653264949    14.28616763067681     4.97424362296778
H          20.66826762707010    12.83255432271829     1.75202566517161
H          21.90604458131523    10.70027938848829     1.78644766615463
C          36.12135433906306     4.87033618857975     4.67721664201873
C          35.40852673598229     6.05546934287393     4.65725302703084
C          34.66613834737718     6.38709524904315     3.53294071477866
C          34.63508283263249     5.55172838401311     2.42850084234428
C          35.35921499230051     4.37183599153744     2.45973861519115
C          36.09752830918757     4.02718969501307     3.57873761474861
O          34.03405230743024     7.63224642635915     3.53230705097260
C          32.72737606593236     7.70750874160383     3.42612406291540
N          31.99412435443103     6.60582384759187     3.36391668342134
H          36.69724778557010     4.60770013311369     5.55195476480857
H          35.42165707515011     6.72984934858305     5.49945456558905
H          34.06191576093008     5.81906026755942     1.55588997559191
H          35.34440555485018     3.72368102651336     1.59671622542815
C          23.32588658343607    26.81222809490440     4.68679658897851
C          22.63719976035053    28.01197600911500     4.69994163099611
C          21.91176657049981    28.40892012117524     3.58900637763314
C          21.87546514833319    27.60359426864200     2.46341188276270
C          22.55435396587864    26.39727797092566     2.43866792558224
C          23.27671295778610    26.01005110501872     3.55600540993398
O          24.05852255499767    24.85267111766586     3.55294382046571
C          23.47709987588061    23.68111997529861     3.42548823153367
N          22.15547204025358    23.59467787980028     3.40788021284827
H          23.90291783540685    26.48923574086799     5.53949125991185
H          22.66964124093139    28.63708786418990     5.57970138546219
H          21.31931556959776    27.91227925579751     1.59127645963743
H          22.52963105469117    25.76847762300097     1.56352034064386
C          35.96713603702884    19.43565237613713     4.59619696534825
C          35.27252068675689    20.63009008719567     4.57962280846765
C          34.66108389162407    21.05072736695627     3.40739398008065
C          34.74184965134339    20.29230547016552     2.25069012378053
C          35.43690808455531    19.09546664867583     2.26743981602536
C          36.04304942935656    18.67354327906926     3.43982229423844
O          34.04211399984463    22.30091584597015     3.41498762385359
C          32.72718490684814    22.36832567780820     3.35586587620280
N          32.00746702755840    21.26172137335443     3.27104716362147
O          36.81755995045061    17.51302891408353     3.47475593418383
C          36.21071895473958    16.34635572942137     3.40631357228048
N          34.89032838821421    16.29118634904275     3.34981083648162
H          36.45200534974025    19.09043374912180     5.49605940137668
H          35.20173105718816    21.24077601897636     5.46627135272204
H          34.27097749648794    20.63225815656084     1.34238168107763
H          35.51021656229386    18.49785817145147     1.37306850987439
H          17.74629723304581    27.31871854364527     0.41548468619354
H          21.37830935784608    29.34776218736843     3.60078012479320
H          32.88772390953540    29.38722320516255     3.59657132080884
H          36.56184707107429    27.41197931574739     0.41751139045226
H          42.54027660634908    16.98655231380392     0.43843138858725
H          42.33095156157886    12.93904943841552     3.68823765151302
H          36.65817430338239     3.10438796710171     3.59504211776554
H          33.16930593676345     0.87445970881077     0.40722611771367
H          17.80654818015860     2.83740902180316     3.61154593484920
H          21.27998963280132     0.83040600804199     0.34297232913710
H          11.80188986515344    13.21432113574961     3.53707740302385
H          11.87412553525030    17.16817550027830     0.25289250053516
N          32.01547340099001    18.04422228907737     4.80023283554152
N          32.85063081358810    18.48590671760676     4.24006826142570
H          19.04211939484533    18.40367873306469     1.38191609255896
H          20.32007893092723    20.51088577762826     1.37964279467113
