360
 energy: -693.065810972283 gnorm: 0.000198142212 xtb: 6.3.0 (preview)
C          21.85248317277378     2.64572894279917     1.45863781153498
C          22.52392212016399     3.85635373661945     1.48291875317113
C          23.27034666342493     4.23150870259576     0.37816618355709
C          23.35028913378319     3.41554002244797    -0.74052225491366
C          22.66918841937132     2.21157989310090    -0.75343790420763
C          21.92017374609641     1.82543253274118     0.34558484917015
O          24.03921268535061     5.39801378881864     0.38213908276014
C          23.44027876468333     6.56689677436824     0.40736992034056
N          22.11941477257681     6.64278721172330     0.37648646866936
H          21.27651573523920     2.34635761269410     2.32109267270447
H          22.47268542683468     4.49717694207777     2.34825412839420
H          23.94534712608737     3.73015622683924    -1.58389294375449
H          22.72593876638937     1.57478966620488    -1.62356444690902
C          21.79936473264230    17.38075257513416     1.47933697924092
C          22.49157723963962    18.57911943312146     1.47883835386254
C          23.28170740103373    18.91334878860951     0.39064132458107
C          23.40518754398929    18.04919054947323    -0.68869522464907
C          22.71410253428606    16.85276640145574    -0.68819487446229
C          21.90423268709995    16.52863856033322     0.39163630212991
O          24.04415851979327    20.07928122208376     0.36545325707763
C          23.44360291113182    21.25060729116898     0.40332779785403
N          22.12425574623407    21.32746773358638     0.42141780683596
O          21.27519725846065    15.28561883845180     0.36744650764829
C          19.96050622589928    15.22063865110020     0.40583433352941
N          19.23475506370420    16.32512221191898     0.42352718650491
H          21.18991066611288    17.11183255005319     2.32688263898383
H          22.42032739213560    19.24194411957970     2.32599456149878
H          24.03941292853055    18.32166251169990    -1.51758931096583
H          22.79466221182460    16.16672308462909    -1.51668951225275
C          34.54123542198613    10.02064249659209     1.41030616326898
C          35.23336823932760    11.21887202971753     1.40983633215878
C          35.98818635824524    11.57306089936602     0.30280411759652
C          36.07217247487928    10.73242798352743    -0.79830223284238
C          35.38095918233250     9.53578215385754    -0.79783125979618
C          34.61118611737079     9.18917168866676     0.30374176803653
O          36.75608053134077    12.73565972133431     0.28287976135940
C          36.15850601570511    13.90747243413763     0.36020831154474
N          34.83867519366986    13.98308289094958     0.37789532663231
O          33.98775544904250     7.94311147748868     0.28476327021237
C          32.67415027924230     7.87533448033432     0.36266986957975
N          31.94924243136299     8.98086146242101     0.37997921315621
H          33.95884522581469     9.73481314280265     2.27138968727793
H          35.19027148324867    11.86667684032514     2.27055269583112
H          36.67603487684715    11.02173486106287    -1.64406153791072
H          35.43177919152087     8.86764898848354    -1.64321421678380
C          34.56896677993014    24.70882473651288     1.47448287727334
C          35.28218088014300    25.89530003102741     1.44925115666304
C          36.02616383439802    26.24586206302597     0.33572045347451
C          36.06548006483535    25.40347408255645    -0.76283381764826
C          35.36287089537915    24.21194898733622    -0.74896615996011
C          34.61652959348607    23.87415971026867     0.37020069751604
O          33.99023375316544    22.62530518428473     0.37514713169626
C          32.67846663266666    22.56010500423008     0.40083434602911
N          31.95275354402641    23.66633720507839     0.36952009134661
H          33.98859586871500    24.43352230477964     2.34019923270214
H          35.25405357651349    26.54430231202938     2.31133919179783
H          36.64509341760922    25.67198745672359    -1.63334602596872
H          35.38732530423894    23.53881080751566    -1.59195999739426
C          18.95977091571689     5.92283568857234     4.59445179149216
C          18.26478897158460     4.72674406987767     4.60152999753522
C          18.29997813482434     3.89633613134864     3.49376981856055
C          19.03236596979443     4.26327012816180     2.37781769781124
C          19.73788705891194     5.45445653547704     2.35928777522126
C          19.69424706575153     6.27719258391169     3.47265135649671
O          20.31348606952783     7.52986260002859     3.47441873068366
C          21.62514831587952     7.60025345044087     3.45448378894420
N          22.35407427663043     6.49605617960764     3.48248156934545
H          18.93828328819194     6.58668260824090     5.44487577229863
H          17.69426571841302     4.44534144130265     5.47397427836890
H          19.05746233955909     3.62342386980074     1.50881755946868
H          20.30990466140994     5.74240225722104     1.49213994096812
C          18.90777805875603    20.64949230118876     4.64382607557560
C          18.21657724297974    19.45286946491579     4.64433242331444
C          18.31582297607697    18.60325594473972     3.55133161377459
C          19.08583284125773    18.94878787137759     2.45206858427356
C          19.77794404292592    20.14697968801005     2.45156363931754
C          19.69292895756641    20.98732887492384     3.55032352778782
O          17.54706540360572    17.44146799059988     3.57043785919040
C          18.14230702345665    16.26826438345802     3.49709019798880
N          19.46197057907055    16.18848807186235     3.48812513547539
O          20.31521771627601    22.23373861218052     3.56841438587166
C          21.62886415129532    22.30423659507225     3.49452189979248
N          22.35730261133493    21.20094202825055     3.48597914732707
H          18.84510954817138    21.32454072664802     5.48288211352564
H          17.60082822496587    19.17040363706756     5.48379582686539
H          19.14045752544815    18.29476279584379     1.59675375158319
H          20.37146248453978    20.42589071771000     1.59585332474397
C          31.60502621934071    13.31483145449111     4.56667586380100
C          30.91394655977899    12.11841813308873     4.56715919696224
C          31.04003262525222    11.25268588686201     3.48931322039545
C          31.83281582286761    11.58550839876911     2.40263723008154
C          32.52499327254485    12.78382681193651     2.40215219370925
C          32.41756902211552    13.63751305878012     3.48834756224801
O          30.27665455763707    10.08757013059094     3.51438834754110
C          30.87400867915289     8.91495679080694     3.46611677110808
N          32.19308725156102     8.83433554511756     3.44233776036740
O          33.04543724463216    14.88092393661913     3.51244398560999
C          34.35963938117231    14.94930017487912     3.46362697655435
N          35.08850051219844    13.84691728017788     3.44028822418709
H          31.52228682612411    14.00213100531736     5.39390263016032
H          30.27753566332271    11.84718620229784     5.39477333268549
H          31.90572108824641    10.92209396619442     1.55611775293615
H          33.13579421371457    13.05163124430652     1.55525565064157
C          31.68841716733209    27.96495586704729     4.59226207191869
C          30.99950093362428    26.76535384497853     4.58606935051609
C          31.05896260935921    25.95154435431688     3.46462794297305
C          31.79296372333643    26.32424365795834     2.35075296585773
C          32.47236240942009    27.53053135875032     2.36839455405572
C          32.42481937296411    28.34882476849036     3.48397590069939
O          30.28320555351918    24.78928604958452     3.46729202550386
C          30.87755504507847    23.61788498349409     3.44788539979288
N          32.19825601215432    23.53815864764727     3.47550478074981
H          31.64752561127903    28.60019242821678     5.46441161984889
H          30.41407229476909    26.45272865834141     5.43690091355729
H          31.82892647242256    25.68444448479303     1.48390407605784
H          33.03879261029875    27.82804404136125     1.49900562436392
C          15.11410699505407    16.69724270289819     1.48136168405176
C          13.72996954223700    16.72171596350554     1.45698144091104
C          13.05371270116338    17.19044436998777     0.34373018844582
C          13.76291882624832    17.64529757686923    -0.75541389939478
C          15.14612309220124    17.63251653679236    -0.74240438779937
C          15.81250094052807    17.15540365520278     0.37650584844551
O          17.20719134131805    17.23742428934851     0.38058643109028
C          17.91954326082675    16.13400035897061     0.40611802653819
N          17.32434059191132    14.95239850347344     0.37542260693758
H          15.64323396018004    16.33248758179549     2.34684675285962
H          13.18249715309208    16.37314042994431     2.31951226888696
H          13.24004842669095    18.01278768325807    -1.62570161661735
H          15.71634101193045    17.98996735264340    -1.58586908699839
C          27.84480318516095     9.30225135127897     1.48021912564963
C          26.46088121180727     9.30251433732101     1.48050304049756
C          25.77574011054051     9.81947767088993     0.39260636563592
C          26.46175842311016    10.35833866091527    -0.68720422615742
C          27.84343404129450    10.35807069715164    -0.68749007527532
C          28.52969206461134     9.81895091978246     0.39203909483592
O          24.38477419195275     9.89677354293026     0.36818704560877
C          23.67069757578742     8.79100787548503     0.40670044339364
N          24.26383609401812     7.61000147597626     0.42468770155213
O          29.92067996071467     9.89569273650024     0.36703027554956
C          30.63431645618999     8.78963038393468     0.40518522668438
N          30.04069339135858     7.60887212229397     0.42344910458801
H          28.38291326635791     8.90907008139075     2.32752817401029
H          25.92297139278308     8.90953162740885     2.32803103394931
H          25.90819906555785    10.77121253106382    -1.51585090769920
H          28.39681022058539    10.77073151743011    -1.51636519700404
C          27.84801857308196    24.01735877502131     1.40793964735455
C          26.46425506462274    24.01758838613333     1.40826250324019
C          25.77945428409868    24.49393200527567     0.30152573763446
C          26.46481956554891    24.98678968158054    -0.80007216328628
C          27.84675186855548    24.98656232007166    -0.80039364945074
C          28.53246345196382    24.49347730576249     0.30088618097765
O          24.38865521657747    24.57760535636761     0.28238564516525
C          23.67268153662100    23.47419602860370     0.36042228850592
N          24.26713218789432    22.29339129015399     0.37802643143765
O          29.92328663433657    24.57663040231757     0.28108705773921
C          30.63884474509924    23.47292443827299     0.35874897495966
N          30.04390752229287    22.29236935543824     0.37663454122758
H          28.38725863854492    23.65611221320635     2.26878959508440
H          25.92529780925966    23.65652313202631     2.26936511633695
H          25.91184097590428    25.36490309036772    -1.64559091452777
H          28.39946189031272    25.36447816615433    -1.64617628932403
C          40.57904764156466    16.71584413180905     1.45052322118505
C          39.19491034514535    16.69198503731946     1.47555097603165
C          38.49620122778384    17.15068596493320     0.37111986470900
C          39.16226798662156    17.62777799707180    -0.74798655993385
C          40.54547063169514    17.63992547172730    -0.76165099960024
C          41.25499233684286    17.18448971875067     0.33704874274423
O          37.10154992342828    17.23327842746327     0.37582507822272
C          36.38873747710962    16.13015829336300     0.40173593298664
N          36.98340479604629    14.94829372210778     0.37080572100158
H          41.12676473412999    16.36684067004140     2.31272530699548
H          38.66603279199858    16.32730405002771     2.34121915717619
H          38.59180903647572    17.98568528477187    -1.59109400215106
H          41.06809604361035    18.00738029449210    -1.63210107829834
C          13.73633630430744    12.57503500625699     4.60094911276768
C          15.11967613961136    12.57826716574642     4.59398423811271
C          15.79408103054962    13.03639943090000     3.47204484959885
C          15.10367569861175    13.48543549029436     2.35845262672298
C          13.71931102074004    13.47063440596712     2.37687525541742
C          13.03506025711828    13.02055413617475     3.49294594999264
O          17.18850339991135    12.94570393732605     3.47392263347559
C          17.90577973475891    14.04612003215310     3.45376069245640
N          17.31449114643085    15.22975043924527     3.48144181411055
H          13.20715008841172    12.22222330999143     5.47349106008864
H          15.68361954045931    12.22784509544215     5.44460077182619
H          15.63927969603643    13.83629410753993     1.49122174080729
H          13.17795080118440    13.81219710640278     1.50770429547127
C          26.46170082376893     5.16421818195037     4.64625080863413
C          27.84360744414492     5.16397428508439     4.64599043003064
C          28.52915038384369     5.67457545843920     3.55252694306549
C          27.84427779216304     6.16845444285675     2.45356302756809
C          26.46055784480349     6.16869634181975     2.45382297282722
C          25.77592697585711     5.67505762195184     3.55304453761231
O          29.91967673246319     5.58973143572119     3.57086864596672
C          30.63804127962183     6.69180492142532     3.49680576358398
N          30.04730647378479     7.87455943822527     3.48795307324935
O          24.38537068112064     5.59075052159913     3.57192860418543
C          23.66744627205553     6.69313973727093     3.49830172033195
N          24.25870279020933     7.87563117358174     3.48923291325558
H          25.90890346779958     4.77254794165831     5.48568053092336
H          28.39658145645946     4.77210140598035     5.48520886120484
H          28.38287624846361     6.54264456655939     1.59788251428263
H          25.92176721357261     6.54307866974891     1.59834768361281
C          26.46518512705665    19.82798272222515     4.56594348626141
C          27.84684881450930    19.82772985704911     4.56563956731479
C          28.53292163975544    20.36962346773363     3.48730946820523
C          27.84766770228361    20.88956921702420     2.40092820966844
C          26.46380538114409    20.88981553619230     2.40122935112734
C          25.77883804335888    20.37012053774285     3.48791093336845
O          29.92364386816327    20.29111915475987     3.51160895467096
C          30.64043041324814    21.39475128495085     3.46266095441433
N          30.05068481612433    22.57740545486156     3.43898400653427
O          24.38809425641060    20.29216050945896     3.51282980114513
C          23.67175240805157    21.39609904427603     3.46426336473052
N          24.26199995385217    22.57849814643086     3.44033198894906
H          25.91181522261930    19.41281053567003     5.39355706576305
H          28.40043073813681    19.41235332735894     5.39300867761957
H          28.38525724787734    21.28427971925165     1.55403325592786
H          25.92598427451088    21.28471129606989     1.55456759365371
C          39.18909424398692    12.57304843032323     4.58806229256822
C          40.57243533989475    12.56924434861405     4.59440484953254
C          41.27339684618756    13.01454525492462     3.48611580001697
C          40.58882783948488    13.46496325834763     2.37037692248971
C          39.20446037339376    13.48034391314626     2.35258034100312
C          38.51437107509302    13.03154575548399     3.46646361710949
O          37.11990770513750    12.94146552332083     3.46899693098268
C          36.40310131121363    14.04219604215772     3.44928560233614
N          36.99491509382837    15.22556897908936     3.47671675990327
H          38.62538856988866    12.22278549284114     5.43890148912196
H          41.10186773427390    12.21614752892946     5.46668156707706
H          41.12994022163500    13.80633896668541     1.50097807691213
H          38.66861178440745    13.83146401495363     1.48560667313407
C          19.07319537717939    11.22221343098569     1.41352394313979
C          19.76479175888353    10.02367485537504     1.41368601029830
C          19.69396988264629     9.19223076660042     0.30715595230867
C          18.92385310311344     9.53917918179708    -0.79406973726940
C          18.23316814570595    10.73613089964888    -0.79423061615148
C          18.31802961763543    11.57673137351903     0.30683340911676
O          20.31684718236939     7.94589724427338     0.28790022236148
C          21.63046223203226     7.87756440338718     0.36516831939405
N          22.35583994520349     8.98278848403844     0.38213566259375
O          17.55064742903019    12.73967114317013     0.28726254301767
C          18.14877743021986    13.91121657528837     0.36437765495996
N          19.46864903800910    13.98624736485072     0.38145841760856
H          19.11696906613009    11.87000312421534     2.27421825439800
H          20.34744064982062     9.73758893365461     2.27450882546975
H          18.87235551167907     8.87106595620873    -1.63942781106312
H          17.62905113333494    11.02570105804808    -1.63971809340896
C          31.77946278777058     3.85445765487325     1.48090834409862
C          32.45036539833544     2.64354147439364     1.45631953254097
C          32.38186595600945     1.82330667689949     0.34327055094510
C          31.63257681109801     2.20981306025895    -0.75543877925876
C          30.95199750880979     3.41406442420056    -0.74220813083588
C          31.03274472721852     4.22996299116893     0.37647345535449
O          30.26437146658876     5.39679165287301     0.38080553478442
C          30.86380688995112     6.56542392425876     0.40573631938868
N          32.18468650092976     6.64076112738563     0.37422559277288
H          31.83133796441329     4.49524152166510     2.34623543759478
H          33.02655878871445     2.34389675221605     2.31852830145922
H          31.57519276163137     1.57307056515231    -1.62555897103052
H          30.35673123319804     3.72896307068664    -1.58532644616256
C          19.03098405939830    25.89856237409727     1.45304157534496
C          19.74373118209602    24.71179909808918     1.47790341814989
C          19.69513811959915    23.87708198583746     0.37370477536354
C          18.94821458757068    24.21509503833256    -0.74500674002837
C          18.24607636870781    25.40690149926752    -0.75850954344565
C          18.28643905118495    26.24935223831801     0.33995853002214
O          20.32094106508733    22.62798391641535     0.37830870802733
C          21.63269337215912    22.56223863842736     0.40342309814185
N          22.35885997476307    23.66816403023227     0.37179717407246
H          19.05991108015554    26.54760427664014     2.31507288386422
H          20.32453753911116    24.43632677780400     2.34327308034138
H          18.92294917751072    23.54190654549971    -1.58793615943301
H          17.66600196872027    25.67558021028155    -1.62866356219786
C          31.81834579671348    18.57731869500646     1.47661607371928
C          32.51000001408509    17.37862940578502     1.47681093766319
C          32.40422955719433    16.52654991626862     0.38917155828508
C          31.59400751310217    16.85103613408612    -0.69028810245685
C          30.90347991656677    18.04778166868580    -0.69048496498239
C          31.02786613761680    18.91189893684479     0.38878144694797
O          33.03269205145671    15.28324681986659     0.36470781070119
C          34.34737278882050    15.21768991861778     0.40247011526339
N          35.07361736867321    16.32185503706533     0.41977764642138
O          30.26592913430320    20.07817220328691     0.36393704876788
C          30.86700665173268    21.24923788379694     0.40157565822631
N          32.18639365426889    21.32554031754994     0.41906777468432
H          31.89030520073959    19.24012242050159     2.32372778746312
H          33.11972738395457    17.10943657162864     2.32407386624665
H          31.51274284130093    16.16501632112063    -1.51873323486566
H          30.26898219809303    18.32053133006995    -1.51907932561311
C          23.39452869925329    12.11990015191979     4.56890710952386
C          22.70401391401714    13.31663953417910     4.56872465666270
C          21.89111446225447    13.63967842813276     3.49077380285288
C          21.78276523148394    12.78601759771056     2.40465028912050
C          22.47437621422755    11.58737333779122     2.40483354760962
C          23.26752089912342    11.25420549996666     3.49113991551651
O          21.26383617017718    14.88338245324021     3.51513688609796
C          19.94963806777713    14.95233607045409     3.46701696834524
N          19.22028816122184    13.85026802484527     3.44406955611434
O          24.03036568351580    10.08873733707477     3.51587125179030
C          23.43245593703681     8.91639764821288     3.46783356179531
N          22.11333121115498     8.83636631439936     3.44468180919566
H          24.03120368028817    11.84838490243272     5.39622495280912
H          22.78746782684020    14.00391868962736     5.39589661209197
H          21.17168674847908    13.05408877768949     1.55803926542216
H          22.40075449020474    10.92397413897517     1.55836410107764
C          36.03999915725652     4.72285379647768     4.59767163924670
C          35.34561811942946     5.91929625507341     4.59081884556839
C          34.61099085315917     6.27404106051507     3.46924231663671
C          34.56660328788593     5.45134516632612     2.35587850346049
C          35.27152976131253     4.25980353092996     2.37417843263438
C          36.00406465684712     3.89248389508341     3.48990762130449
O          33.99236210114660     7.52701688669792     3.47120400243572
C          32.68072202898342     7.59800627569676     3.45195109319485
N          31.95131732948865     6.49413625769324     3.48036685632853
H          36.61065181810439     4.44115673863832     5.46993638186298
H          35.36769783537356     6.58312094065120     5.44124529202637
H          33.99444651360560     5.73958393478437     1.48891988015572
H          35.24584631540498     3.61997740665237     1.50518086868214
C          23.31548257217807    26.76681972749930     4.58788949391380
C          22.62706278324400    27.96670370318643     4.59442872498097
C          21.89030607880956    28.35090154042223     3.48648990055460
C          21.84193981019309    27.53267032303962     2.37089989924138
C          22.52083877212281    26.32610440393417     2.35291430831893
C          23.25517871274862    25.95306623959060     3.46645122653345
O          24.03045070860645    24.79048206798061     3.46873284041269
C          23.43558803377309    23.61933625994378     3.44963741395094
N          22.11486662338353    23.54018263254043     3.47790138167200
H          23.90114716873986    26.45391489895432     5.43845593489500
H          22.66859251038765    28.60188897957019     5.46658601215523
H          21.27525337098658    27.83044184712973     1.50176655683467
H          22.48422520128814    25.68634740853205     1.48606243872470
C          36.09526166613215    19.44909064058344     4.64006793556913
C          35.40461029355226    20.64603111465548     4.63989119758894
C          34.61909714302087    20.98423131657397     3.54676149837798
C          34.53317365962317    20.14392141656189     2.44804239097783
C          35.22472834877109    18.94540759044246     2.44822107978352
C          35.99510408443633    18.59952059734439     3.54711614286680
O          33.99738197793415    22.23092432175615     3.56514444483213
C          32.68372945657433    22.30200140667584     3.49190517303397
N          31.95480608509110    21.19902524838645     3.48374407218362
O          36.76334798445107    17.43738592989616     3.56585322356841
C          36.16755783400080    16.26444397763106     3.49279160595845
N          34.84785599614925    16.18524114676064     3.48448140034690
H          36.71128004709951    19.16634135491645     5.47923836164107
H          35.46798403512314    21.32104717978245     5.47892033322819
H          33.93938437400956    20.42311361091969     1.59261166801315
H          35.16939337363126    18.29141200873502     1.59293017054063
H          17.73419391865202    27.17729574726489     0.32803696232572
H          21.35713846665477    29.28999572958979     3.49305005220572
H          32.95838821474847    29.28769216455412     3.49027237861004
H          36.57876148490475    27.17359191155248     0.32350084426919
H          42.33473609456535    17.19878013586478     0.32500853147255
H          42.35326047391400    13.00670029798793     3.49252612736897
H          36.55034189793270     2.96095636273014     3.49671103193232
H          32.90896857701048     0.88085138215915     0.33157011745806
H          17.75323969835873     2.96508060205364     3.50075520160488
H          21.39265301659415     0.88320827174656     0.33412313457689
H          11.95519659865181    13.01312962487459     3.49983372295596
H          11.97397029585538    17.20525526267714     0.33220951901491
