504
 energy: -923.419975603504 gnorm: 0.000758787115 xtb: 6.3.0 (preview)
C          14.40295828398738    16.93046086150144     1.47030550960480
C          15.74487526223776    16.81291088433812     1.24010378357093
C          16.67854685537171    17.14404677372057     2.24323925022132
C          16.20323571746534    17.62633809604760     3.49031107000621
C          14.81326430009683    17.73847232353692     3.69493304442884
C          13.93282630657446    17.39045688308032     2.70980050724057
C          18.06551798979962    16.98746264141138     2.04778279701202
C          18.93462784499645    17.29148952561166     3.05798457379202
C          18.47669189391794    17.78955015890973     4.28993045503711
C          17.13759188808667    17.95725500662572     4.49335753474365
O          20.29211583238980    17.02371657230874     2.86886049624832
C          21.13710747143879    18.01935249038618     3.00469193119335
N          20.68378986845113    19.23555658653000     3.25794669755506
H          13.69191458800197    16.66571220075545     0.70137884396931
H          16.11442644995784    16.45624838265959     0.29020081275507
H          14.45685851878119    18.09864512060413     4.64922487689496
H          18.44488611108518    16.62645131545547     1.10550903193123
H          19.19203608185861    18.02649966073540     5.06178631062297
H          16.77397135691820    18.33508657787365     5.43776102341639
C          20.81721876071606    14.18469762979535    -1.26213075237878
C          21.48914650171772    13.00628290353301    -1.41872295554170
C          22.63974579815780    12.72451980448312    -0.65105067050550
C          23.06906340125197    13.68010217199282     0.30741245893580
C          22.34921795540198    14.87827653644692     0.47331368358904
C          21.26162204450706    15.12910890483819    -0.31704886522229
C          23.37103419516237    11.53009137652456    -0.79671905643703
C          24.48992113436671    11.30176495693062    -0.03292141871978
C          24.92034616686602    12.24753310600937     0.91244254820494
C          24.21557641417955    13.40459282467800     1.07683401459159
O          20.50100197216999    16.28431708813842    -0.19962615209333
O          25.07870017590146    10.05394837105632    -0.17079377802165
C          26.37206402305103     9.84123506755328    -0.03930404388162
C          21.10631417585731    17.44731646457472    -0.04686354264917
N          27.23673373886344    10.84001737780433     0.03271117402004
N          22.41195388232295    17.55225062668391    -0.21081766479353
H          19.94380562849894    14.41719161605618    -1.85143161584855
H          21.15201856704218    12.27874897050333    -2.14221340840720
H          22.66673624257467    15.59067358776333     1.21839460903974
H          23.05055210729816    10.78432048062455    -1.50867208641017
H          25.78304965301199    12.04237275606596     1.52028975636858
H          24.52933551386445    14.13070411863994     1.80862815282662
C          30.65726581901439     6.41232729909944     2.23318915426884
C          32.01169519241069     6.27357272848554     2.15243541635044
C          32.86861071867678     7.07173956897938     2.93942805999287
C          32.29754636699906     8.00487380616188     3.84522635830132
C          30.89539962733046     8.12936771162966     3.91844590829309
C          30.10045142809891     7.36426542847037     3.10875523500409
C          34.27033375244122     6.98217804465985     2.84253493060432
C          35.06701648431687     7.78809818947862     3.61256602045448
C          34.51157812844298     8.70545459080414     4.52144128414558
C          33.15340851375880     8.80540726554776     4.63186656342747
O          28.71390385612593     7.42135515548880     3.12187663450409
O          36.43866232155965     7.59227268303544     3.52713876929758
C          37.24640067473279     8.61188384784004     3.32296180280467
C          28.08186529955291     8.57656483113407     3.12694539353214
N          36.76738313677921     9.83642894461067     3.17641906644249
N          28.74451258713905     9.72050503412530     3.14727411282760
H          29.99009866128180     5.82129836986789     1.62758408760228
H          32.44693104431594     5.55653401075861     1.47328867292054
H          30.46618747939743     8.84716710856745     4.59867466490354
H          34.72411850309312     6.28783557729115     2.15262750567768
H          35.16519238252335     9.32242336495299     5.11651401377040
H          32.71575979041706     9.51279475784721     5.31998061120901
C          39.15813109394593     5.55209794053581    -0.22383275813504
C          39.91585996191927     4.42476749714135    -0.08969847786931
C          39.91694542132334     3.68712059616472     1.11249239051969
C          39.13254156551978     4.15039376474205     2.20044704380357
C          38.36421988670757     5.32169512921649     2.04618283656361
C          38.37438001824876     5.99487722262050     0.85604444763986
C          40.65537851152870     2.49591353294320     1.26135504015575
C          40.62112079079306     1.79571776362565     2.43427548788805
C          39.85776976733323     2.26208791182255     3.51546279785712
C          39.13174272483560     3.41432703061448     3.40305760594009
O          37.53114042688139     7.09842864565371     0.71120144975470
C          38.08319173368355     8.24786571194135     0.38376760849620
N          39.39707058250153     8.31981010496468     0.24692765859717
H          39.14576924376262     6.10996132976522    -1.14684533312081
H          40.52024104624872     4.07439941084567    -0.91376869352305
H          37.76948992170084     5.69139030216872     2.86584259310850
H          41.24566530470888     2.14365110965197     0.42774171658448
H          39.84711663336844     1.69771216244177     4.43664158645755
H          38.53927330702021     3.77799480854724     4.22968228367316
C          21.24868654255825    33.15728706417845    -1.99637724496797
C          21.74870362271383    31.88538391439914    -1.97359615702567
C          22.72544437610373    31.51371286248160    -1.02599487079064
C          23.17913151948468    32.48148704313819    -0.09181898371484
C          22.64389872650896    33.78518677003405    -0.14269818437165
C          21.70013101780929    34.11552597692771    -1.07466422148645
C          23.27155952487698    30.21527926193351    -0.98196332089367
C          24.22391489827179    29.89796944625179    -0.04982839961988
C          24.66014668748225    30.84229640484461     0.89561586740235
C          24.14545716326669    32.10660813181644     0.86409201470122
O          24.67762221328404    28.58006816841668    -0.02631634811586
C          25.97153448290926    28.33842877805202    -0.00207385958615
N          26.83558673310851    29.33511804324627    -0.08846490289617
H          20.50184022283228    33.43585669526755    -2.72543886847483
H          21.40483876606363    31.14621227227387    -2.68273173512135
H          22.99856154303392    34.51557452334925     0.57091482462375
H          22.94164918270784    29.46834572016571    -1.68842962436181
H          25.38687824323014    30.55671357192753     1.63841809590171
H          24.47286842341842    32.84151747688504     1.58290191309984
C          30.67142590076055    25.09792540955900     1.83293221153448
C          32.01711557573790    25.00810363371937     1.62221798698272
C          32.92727270677923    25.74443469343074     2.41047607455610
C          32.41423433360693    26.57152170039107     3.44552480045554
C          31.02102051924924    26.65373951480542     3.64676142498857
C          30.17214445231265    25.94177705689869     2.84352900987723
C          34.32008527347339    25.68677206327522     2.20122552492372
C          35.16918132262752    26.41482137867774     2.99406537124703
C          34.66710573844141    27.22618765567170     4.02893164923460
C          33.32067834423877    27.30202617974082     4.24269397953617
O          28.78849406800437    25.95870620742852     2.99577235841245
O          36.53312740742223    26.22939275900816     2.82601709639717
C          37.35916226184298    27.25367881471470     2.93178032994069
C          28.14385427446932    27.10529193471368     3.05871960306462
N          36.89813256940900    28.48944764054479     2.83038044339719
N          28.80097960408203    28.25111457839541     3.03932335937449
H          29.96690968717130    24.54985493978727     1.22949629379786
H          32.40374604110597    24.37277734787294     0.84003954689155
H          30.63856914350271    27.29536488409973     4.42436623652106
H          34.72452136128634    25.06567955810402     1.41733637127510
H          35.35385038551954    27.77983327672890     4.64902336308255
H          32.93224911318875    27.92782634989337     5.03207778810952
C          37.20770640230407    24.25098528898869    -1.35990900215684
C          37.75549241747145    23.00725238178379    -1.47313871548039
C          38.79677898812679    22.59932433519082    -0.61164544231190
C          39.24763127128241    23.50218120587387     0.38661734931578
C          38.66896444036272    24.78531409159904     0.48969336177644
C          37.67797811695296    25.15102848822464    -0.37952404372123
C          39.39799536499797    21.32950341035648    -0.70981457255526
C          40.40237967333447    20.97048991153256     0.15260580003599
C          40.83349398516187    21.84565966422693     1.16329788156053
C          40.26536651452125    23.08376440276795     1.26734184105900
O          37.00414794865497    26.36276852309216    -0.35955966758986
O          40.89628811839314    19.67392679908378     0.04130853671193
C          42.19254569457086    19.43810983983859     0.05634825424613
C          37.59086956356601    27.51825663518745    -0.12611747575431
N          43.05753835655932    20.43797525265815     0.07086879587857
N          38.87907610821858    27.60119636522711     0.16820586235792
H          36.41233162008341    24.58014058150849    -2.01059802861385
H          37.40035260049883    22.32085853151674    -2.22752087366072
H          39.01263024131777    25.45739573586462     1.25868460205115
H          39.06756573016050    20.63544594350524    -1.46804007618912
H          41.59411566621749    21.52166301121682     1.85385802831424
H          40.58421365619019    23.76519121441112     2.03874618802342
C          46.63445029838892    15.66661573104022     1.80929214787096
C          47.97474974347264    15.53373086381829     1.59466927527651
C          48.90631325570306    16.30203352391543     2.32456001803856
C          48.42577410845571    17.20159941158303     3.31209520172931
C          47.03608726315789    17.32764927566061     3.51796659882410
C          46.16561685594714    16.58931469704935     2.76455647591126
C          50.29596860010371    16.20977703177821     2.10390641529196
C          51.17112198799295    16.96956818581750     2.82954644537992
C          50.69681723158050    17.85111213762208     3.81385240956919
C          49.35509224607517    17.96378840612674     4.05173942505948
O          44.78354003342581    16.63913781666534     2.91091745676932
C          44.15331720406251    17.78788586795284     3.01613581959973
N          44.81376846181679    18.93298140040390     3.04202232742965
H          45.91167434756591    15.08807507571521     1.25716020377799
H          48.34035168971258    14.83757596468741     0.85435305402847
H          46.67692596030749    18.02144688990946     4.26089852480112
H          50.65628707439613    15.52862140623225     1.34652428965884
H          51.40201422137665    18.44235591644625     4.37934308978605
H          48.98488003969363    18.64730543104787     4.80178169002618
C          26.15075671823640     1.80601990671083    -1.93056769641504
C          27.00595220476828     2.87215112436355    -1.91341365036783
C          26.84773239449563     3.90560025121499    -0.96629403854800
C          25.78719973895194     3.81935347117894    -0.02665400857098
C          24.92175180806436     2.70685587091459    -0.07181775552395
C          25.09952469813791     1.72258204951996    -1.00347398816993
C          27.70312503349115     5.02498253895567    -0.92802052822569
C          27.50970700832067     6.01020534390890     0.00383806749781
C          26.47821048945988     5.92052235860667     0.95456734543769
C          25.63692403633090     4.84538261814964     0.92873328318618
O          28.42744377998440     7.05948571794423     0.02162619676327
C          27.99255307727435     8.30193023515937     0.04273712298563
N          26.69759909261930     8.55397548427101    -0.04093406961975
H          26.27661598023396     1.01859598789513    -2.65928546911989
H          27.81466988608623     2.94030801268087    -2.62672703567531
H          24.11527651564321     2.65245782520347     0.64590952761635
H          28.51160321625416     5.10911422206104    -1.63874193704371
H          26.36837217984047     6.69416180797892     1.69678362948664
H          24.84012496995584     4.76506398414015     1.65166644243677
C          28.45846502544585    13.99829807264329     1.85515335723115
C          27.86343446127393    15.20856633644756     1.64394586948925
C          26.77616075838537    15.63267072217117     2.43759997370945
C          26.32191399103375    14.77894259875751     3.47848499395572
C          26.94719778597073    13.53132241680063     3.68018732994359
C          27.98277885487370    13.14818958094998     2.87184232780901
C          26.12967435082653    16.86768630372891     2.22801807716106
C          25.08000262303018    17.24281430733102     3.02613459010608
C          24.63409182332462    16.40650234577173     4.06686854059920
C          25.24159948889558    15.20264485836899     4.28105853356437
O          28.65941053484168    11.94120611935422     3.02467739685440
O          24.55796923140757    18.51639017381258     2.85707990563898
C          23.25808951926871    18.71859443578834     2.96751645724545
C          27.98747370649230    10.81080642306767     3.09441416479843
N          22.41936733363683    17.70011637480881     2.87117387768057
N          26.66652689746526    10.80880618703979     3.07970531516683
H          29.28107552111483    13.65906519515583     1.24762075756509
H          28.21610077350306    15.85787181717609     0.85720368413346
H          26.58697369258606    12.88241103468854     4.46235907203158
H          26.46103344298498    17.52529250065084     1.43962332656441
H          23.81561550415341    16.72766053358673     4.69108240958477
H          24.89822433016839    14.55651966268472     5.07493811030969
C          43.67054630965347     3.99492946401972     1.51711536772250
C          43.10077345018340     5.21455621332037     1.28170652622246
C          42.34534241540248     5.86066212641613     2.28151038635608
C          42.16414508951758     5.21227053649312     3.53070964567009
C          42.76275176870674     3.95368629120645     3.74072180166073
C          43.50615560799299     3.36221286589126     2.75873619804479
C          41.78680869751236     7.13897829164984     2.08066919544857
C          41.08727589716946     7.74287152860332     3.08778840030338
C          40.88384216662151     7.10159048265083     4.32183271709082
C          41.40862961124771     5.85910124767877     4.53042878894631
O          40.63977293485925     9.05131423992741     2.89313306508964
C          39.35496580093012     9.28537105764654     3.02823207831012
N          38.52879270404731     8.28543166605278     3.28576424978982
H          44.25711490952904     3.50938122834044     0.75083949093872
H          43.22608975774734     5.70970065921263     0.33025166467952
H          42.62799764182990     3.46824189751045     4.69654423061200
H          41.91054951517913     7.64465140381621     1.13667257386931
H          40.31978558628750     7.60507666330261     5.09122307366301
H          41.26236194976278     5.35860005684827     5.47647351918562
C          25.91824390116348    20.07673734202044    -1.33628962408418
C          26.72082267942151    21.17280152557358    -1.45577906324730
C          26.55609802969664    22.28128871076087    -0.59731280607132
C          25.55250555645172    22.22313824840051     0.40486330405244
C          24.73136660273824    21.08052992255801     0.51454489889238
C          24.90710192637870    20.03690264628447    -0.35223008126856
C          27.35402513122617    23.43705490703575    -0.70246848931300
C          27.16508941149679    24.48925685906359     0.15693128801870
C          26.19556959949610    24.42781192179431     1.17160191359989
C          25.40862102692788    23.31655715621582     1.28249955947964
O          24.19435078794890    18.84776081386716    -0.32649583819850
O          28.03934405985678    25.56588317028728     0.03832119468854
C          27.59330925756771    26.80565089673759     0.04918658678594
C          22.90113937214262    18.77957409358518    -0.08811169777357
N          26.29448909791965    27.05240565070467     0.06715586518240
N          22.18716925518681    19.85493631719223     0.20655133369009
H          26.02870687598844    19.22138441789387    -1.98477199805760
H          27.49014447694561    21.20625581365629    -2.21299494423397
H          23.98028845111917    21.04437504910015     1.28636576445162
H          28.11738243524879    23.49589150347003    -1.46379940219010
H          26.09777546407625    25.25086283796037     1.85965713498091
H          24.66199415025286    23.25413979803383     2.05693329884684
C          28.62904537042754    32.54625846349907     1.77140653596096
C          28.07027141797542    33.77108595452295     1.55297488803991
C          26.94121234454711    34.19477805360511     2.28546440485966
C          26.40853921115545    33.33259788378121     3.27958829511507
C          26.99805636001946    32.06850936418591     3.48941219218007
C          28.07041358798819    31.68247809773047     2.73341974620246
C          26.32242073209143    35.44180557203379     2.06103361340512
C          25.22889550740793    35.82087505423524     2.78921128961270
C          24.70863610656894    34.97308825358111     3.77993803731220
C          25.28581050570813    33.75737899045850     4.02166434396105
O          28.72151830900851    30.46274635913774     2.88324149591032
C          28.04427805685892    29.34180101406321     2.99587961896586
N          26.72249146611839    29.33902269165099     3.02621706081323
H          29.48980124967339    32.20871957001803     1.21722141085242
H          28.48568519807912    34.43298298525909     0.80753018378139
H          26.58142567090153    31.41335532264760     4.23740941156703
H          26.72751674847612    36.09155211780735     1.29869852336848
H          23.84552820983687    35.28897014164701     4.34731666715037
H          24.88359997450928    33.09785044922660     4.77669074734995
C          42.83284235448948    10.90714462161906    -1.24804418150060
C          43.51600869431300    12.07814719950314    -1.41148035541572
C          43.18292038817676    13.21973298406911    -0.65092394925378
C          42.14054888754276    13.11818604205728     0.30785023526210
C          41.46448190610824    11.89580647822509     0.48109339254280
C          41.79253730210279    10.82419097497752    -0.30279062907876
C          43.84994812218487    14.45029075655910    -0.80393423888621
C          43.48634009285786    15.53770502715355    -0.04705209064398
C          42.45171538129521    15.44199205653337     0.89836974015982
C          41.80384344279266    14.25315456052716     1.06999145862609
O          41.17373749341466     9.58790724534795    -0.17840179428875
O          44.27122068281954    16.67147253507434    -0.19199588047138
C          43.80886145625779    17.89842197873518    -0.06496357359323
C          39.86400742172861     9.53004367795680    -0.02474266356771
N          42.51176530731600    18.14836258630538     0.00913450645370
N          39.11909041530830    10.60663848149107    -0.19380695430701
H          43.06949367630182    10.03126482340730    -1.83200877775988
H          44.31481614913163    12.14656223400980    -2.13510578935013
H          40.68876841628947    11.81812646533166     1.22653501282116
H          44.65623665261882    14.54241305021434    -1.51609585984135
H          42.19633117889107    16.29513520384800     1.50061353626830
H          41.01790449079922    14.16523885737710     1.80194271452573
C          44.64765669817199    23.33079491554963     2.18361697274146
C          44.09254450896496    24.57363034958990     2.09757097162215
C          42.97297679219143    24.92149736461946     2.88262378149862
C          42.44882082097430    23.96493927954369     3.79232459424270
C          43.03981403328283    22.68762049897957     3.87068411166757
C          44.09960740134215    22.37677487837051     3.06250428540304
C          42.35137753392318    26.18057385103546     2.78005119976555
C          41.25529575981150    26.47255763883061     3.54856194807528
C          40.73758706541287    25.53772935888457     4.46193061858281
C          41.32830229996475    24.31114026141969     4.57765941441548
O          44.74166092042520    21.14661992269043     3.08012583719731
O          40.74070950844040    27.75851583444944     3.45643060024429
C          39.45337548119792    27.94933265293695     3.25593208073775
C          44.05648874620196    20.02214008764902     3.09140044843257
N          38.63004255219968    26.92284980629660     3.11887196067329
N          42.73451753448438    20.02464985475973     3.11467810737921
H          45.49314127537705    23.04493043956456     1.57977583650135
H          44.49740967295030    25.30573182053248     1.41571151013232
H          42.63127966132885    21.96036787850850     4.55359053278066
H          42.72695083138379    26.91706856077271     2.08684568596699
H          39.87700534741236    25.79907108848897     5.05610360627954
H          40.93347329754658    23.58211932265288     5.26908740559072
C          41.12850691209650    31.11749525715617    -0.31250121345957
C          41.72790109480820    32.33719388876442    -0.18552244791059
C          42.37524215278766    32.70925658373982     1.01110304505065
C          42.37334467861799    31.80086154414080     2.10121913534043
C          41.74097162467717    30.55005530335260     1.95445368875135
C          41.14391018048705    30.21989587481248     0.76940714852774
C          43.04018005181113    33.94390961078812     1.15218548824464
C          43.67276035421612    34.26631465464805     2.31972906232919
C          43.65739678094127    33.37468591797426     3.40322457876787
C          43.02035455319917    32.17029668716994     3.29830022271049
O          40.60808859798567    28.93778634333050     0.63223548209283
C          39.33518704010229    28.83976106391424     0.31084264141450
N          38.61547042911994    29.94087828984578     0.17043790633637
H          40.64484605020448    30.82614822481336    -1.23145600674877
H          41.72382059955237    33.03387396375157    -1.01120444786719
H          41.72359982023134    29.85207387116473     2.77592384765198
H          43.04446373842512    34.62945257491030     0.31702079405489
H          44.15874041585682    33.64913524015324     4.32006022291499
H          43.00722651226229    31.47717658889740     4.12657862984567
C          18.01822808608488    20.05217205127805    -0.26814140996465
C          16.66239025514676    19.96095248558161    -0.14006595903992
C          16.01798910243098    20.33001582423712     1.05907152682601
C          16.80690816111211    20.77754338505591     2.15033201999872
C          18.20618621296902    20.85609758553193     2.00226516552819
C          18.78910699888124    20.50950826895881     0.81492484162474
C          14.61649409815717    20.28700489537777     1.20179915056211
C          14.02233870755352    20.66746042371021     2.37201348490093
C          14.80341915731552    21.09525969365745     3.45645670622289
C          16.16480084908083    21.14715398540791     3.34998457263040
O          20.16722828643973    20.68650412662615     0.67586478812470
C          20.88687792459159    19.63206952667485     0.35421192355747
N          20.29159518481787    18.45844514345422     0.21841578415781
H          18.51148813658685    19.78285438878954    -1.18875606176045
H          16.06019183964731    19.61279042752732    -0.96666028462678
H          18.82030522499802    21.18611931776425     2.82453598071743
H          14.01972265299086    19.95200641291895     0.36570106846980
H          14.31610435843276    21.38720950889228     4.37540868879914
H          16.77258362408256    21.47828645755163     4.17912831503759
C          35.17749354140101    12.37510455741118    -1.32207246578221
C          33.82683632123607    12.52222350584040    -1.43968881964573
C          32.95048215330580    11.82898783905678    -0.57696814149156
C          33.50412845616484    10.99235527780133     0.42725151826314
C          34.90436409241625    10.85225805140792     0.53485084784949
C          35.71902932527598    11.52281526408235    -0.33578535766885
C          31.55046649676541    11.94270717291744    -0.67965703554409
C          30.73497295010088    11.25677482655642     0.18399867162893
C          31.27448194337435    10.45115868838674     1.20046082310889
C          32.63047662612839    10.32484841808074     1.30910736272358
O          37.10523538149133    11.50018641770502    -0.31230260515482
O          29.36546699700054    11.47668637869406     0.06776625969485
C          28.51318699222301    10.47199237419798     0.08498722551999
C          37.81186890579503    10.41602964624216    -0.06911117564698
N          28.94672216996157     9.22307566883381     0.10610757072106
N          37.23888139501658     9.26096817243291     0.23174218040600
H          35.86208140618619    12.89579250594222    -1.97367235743032
H          33.41211693256935    13.16911806882340    -2.19856264697572
H          35.31233994520853    10.22258005089386     1.30827577935180
H          31.11671544024735    12.57196347814762    -1.44235041499338
H          30.61167135624115     9.95796915541250     1.89171340902339
H          33.05903882462468     9.71221880306991     2.08505748554819
C          23.02640808186604     8.51183705383625     1.83090539610061
C          22.24285917317997     7.41566693699636     1.61967624679431
C          22.44034725451213     6.22931449904518     2.35750160179474
C          23.45575780547775     6.20230722852013     3.34926972291677
C          24.25798110247956     7.34465327785286     3.55161272541243
C          24.05594947108195     8.46301759299362     2.79074254890495
C          21.66738720434818     5.07006614249050     2.14062737697617
C          21.88585719320940     3.93672274318765     2.87379728803826
C          22.88261419612803     3.91327944406189     3.86216434477979
C          23.64921916217267     5.02091298128617     4.09660019903813
O          24.78877726864895     9.63636250720332     2.93348925766586
C          26.09845736197402     9.60884129909455     3.04227777472957
N          26.76018813715459     8.46464570544589     3.07468678043759
H          22.88843174263994     9.42354745110946     1.27260831915966
H          21.46020982265440     7.44205312610993     0.87595330829229
H          25.03544515369110     7.31388709567480     4.29788461312754
H          20.90030133145733     5.09353085724764     1.38006722265031
H          23.04055384214106     3.01038999777031     4.43356343686529
H          24.42330758712408     5.00480321892307     4.84981760111855
C          34.65030832083831    31.61354852443536    -1.31785333499075
C          33.29374219459153    31.61967207630076    -1.47400968685407
C          32.47497745293057    30.76726062933021    -0.70224746018377
C          33.08853309127096    29.92216927002382     0.25976073640211
C          34.48617062432967    29.94761318652843     0.42498069944293
C          35.24665442118574    30.76086556927918    -0.36920755470240
C          31.07489135310216    30.72985253796940    -0.84733529713874
C          30.31833026339814    29.87819622685472    -0.07940993999766
C          30.92275610170235    29.03742082729014     0.86992557076525
C          32.27725647583634    29.07039368654259     1.03352566900162
O          36.62737171472958    30.84321558586921    -0.25236987094790
O          28.94317668768925    29.99028029393028    -0.21789794964647
C          28.11379665443582    28.97568761687081    -0.08350830609009
C          37.33269129140313    29.73869590178704    -0.09438394125434
N          28.54862947179659    27.72857668924440    -0.00566776247885
N          36.77170284119601    28.55438942407246    -0.25326885204038
H          35.28790596284959    32.25133410264497    -1.91020728479690
H          32.83177891434449    32.27204485683580    -2.20023993641548
H          34.94484428439438    29.31987201937631     1.17265960571956
H          30.58877489706876    31.37670068841738    -1.56220865647610
H          30.31414503593952    28.39565215084847     1.48114469699198
H          32.74977360293917    28.43918789435552     1.76801876120911
C          22.99841201245935    26.98607433006041     2.18989971060307
C          22.20097387303309    25.88238076838157     2.11155614224541
C          22.46355708220727    24.74301469234818     2.90125200254754
C          23.55696712640163    24.77309729415875     3.80724951151481
C          24.36622972487985    25.92510308161723     3.87764987247772
C          24.10131935754255    26.99421205601556     3.06539379769354
C          21.68502573990721    23.57375782239015     2.80694163978271
C          21.98406072261335    22.48273145902650     3.57986116618789
C          23.05563195107361    22.50733717502567     4.48938280565753
C          23.82155133731338    23.63366983143064     4.59711150230912
O          24.84368844802107    28.16663004836976     3.07539973117916
O          21.12864110972534    21.39262366407453     3.49606735095793
C          21.60793796153479    20.18268296449153     3.29589703122777
C          26.16015660622968    28.13789493164562     3.08307974276460
N          22.90828858441732    19.98446367319853     3.15371528865824
N          26.82113777283648    26.99313061334224     3.11008631366372
H          22.82008049179774    27.85809510043936     1.58247847568523
H          21.36240281475589    25.86251423923015     1.43242484192850
H          25.20244120705317    25.93934123162039     4.55787059557616
H          20.85715717803383    23.52633627464171     2.11673371291666
H          23.26261919323824    21.63442525554236     5.08699412896919
H          24.65264897502255    23.66060085168446     5.28558182757123
C          50.87593498179285    21.72472170595755    -1.98087383707035
C          49.52492899517628    21.93144103078523    -1.96246633917052
C          48.71054200102447    21.27848457872266    -1.01350693728633
C          49.31713498983098    20.40478153944535    -0.07340772329859
C          50.71337625969612    20.21232728119816    -0.11991952187964
C          51.47542477023526    20.85768275711049    -1.05328980768574
C          47.31338661966655    21.45884526742755    -0.97377795371957
C          46.55832174039753    20.79970349343258    -0.04000900351699
C          47.15341211453448    19.95297350212014     0.91123514262565
C          48.50520802939501    19.76252651719817     0.88385921340555
O          45.19074052759869    21.06943762445461    -0.02116517787656
C          44.33217987170917    20.07176792398008     0.00617726452230
N          44.76096458658395    18.82387358177239    -0.07306359068341
H          51.49378770061885    22.22684512338612    -2.71097060093130
H          49.06031136479629    22.59647370868825    -2.67615139111492
H          51.16497126083848    19.54235405709652     0.59819592946442
H          46.83503492845158    22.11564524330521    -1.68485430695952
H          46.53965778397910    19.47189486563225     1.65509206716820
H          48.97437647112039    19.11381428713310     1.60706943350121
C          39.17108368395360    17.63149794670576     1.84010556882301
C          38.42067093283642    16.50974285286491     1.63518393054038
C          38.59854185872729    15.35989751848446     2.43403232556321
C          39.56633486292485    15.39870567532673     3.47351616295216
C          40.33375879520700    16.56538791277929     3.66884695336972
C          40.14632366947883    17.64988155934892     2.85557334794276
C          37.85269425264276    14.18109797844044     2.23076677792752
C          38.05446204051243    13.08816080720265     3.03347677171328
C          39.00308234120049    13.12545069454509     4.07276514582661
C          39.74136220065623    14.25497609866423     4.28096759007865
O          40.85324775945406    18.84028039632318     3.00182637211450
O          37.21297723120558    11.99801286232274     2.87029960034128
C          37.68833832267274    10.77184628052359     2.98569340333732
C          42.16836419371289    18.82377622679374     3.06842032223441
N          38.98973974179675    10.55474648577059     2.88945438507570
N          42.83014680787836    17.68053978440282     3.05711993659318
H          39.05258382956730    18.51050781701669     1.22840894587261
H          37.68110080296901    16.48643464999332     0.84941793574833
H          41.07680453842065    16.58192354442864     4.45003001567313
H          37.11647449198013    14.13526424259996     1.44355867269167
H          39.13569735340657    12.25890588104798     4.70061496704166
H          40.47363996555686    14.28467355014200     5.07375234070703
C          40.22507350082600    35.81554062825104     1.38570274104410
C          39.45236004197144    34.71039600540157     1.16406601408665
C          39.28121150119246    33.73857312548451     2.17107021897354
C          39.94547293271912    33.91326992473130     3.41284461096914
C          40.73714183983641    35.06278832375405     3.60866502554505
C          40.86721722233294    35.99696145247494     2.62010703273240
C          38.45227323803871    32.61410569113161     1.98472447158547
C          38.28951466359383    31.71183323199234     2.99854809298842
C          38.95856163751292    31.86365163484917     4.22525301183353
C          39.77353506551464    32.94104081739716     4.41974512620309
O          37.37847000442043    30.66909884694710     2.81787919556359
C          37.81714677553000    29.43972014138884     2.95894679927180
N          39.09696574028480    29.22355007718130     3.21215680675748
H          40.34404479470317    36.56216209221839     0.61406851919999
H          38.95151952473304    34.56577719445149     0.21833869021953
H          41.23427058945718    35.19449610504981     4.55888983794014
H          37.94324814698775    32.46285701148409     1.04656111852796
H          38.81264230869625    31.12779451092000     5.00036863917874
H          40.28932489049061    33.07026842300006     5.36002910835025
H          12.86866027387156    17.46902376251770     2.87685996453804
H          41.18291535097492     0.87917912913128     2.53858777380459
H          21.29348123558981    35.11562522724964    -1.11016772954973
H          52.23421401753758    16.89642950916984     2.65230986014962
H          24.43366906164052     0.87258452801320    -1.03459099652651
H          43.97069536949265     2.40229769281394     2.92989856187892
H          24.75767229151464    36.77608100722863     2.60905025563347
H          44.18727539133375    35.21084918396977     2.41809297726807
H          12.94723827744530    20.63976913101184     2.47163365032922
H          21.29236419368430     3.05112030398374     2.69943863133900
H          52.54453844401074    20.70670876809245    -1.08539475217853
H          41.46724442196650    36.88058258811709     2.78041517999286
